psse_raw/facts_shunt.raw
0, 100, 33, 0, 0, 60  / minimal 3-bus system with one shunt FACTS record


     1, 'BUS 1       ',       138, 3,    1,    1, 1,           1.02,        0,  1.1,  0.9,  1.1,  0.9
     2, 'BUS 2       ',       138, 1,    1,    1, 1,           1.0142,           0,  1.1,  0.9,  1.1,  0.9
     3, 'BUS 3       ',       138, 1,    1,    1, 1,           1.0059,           0,  1.1,  0.9,  1.1,  0.9
0 / END OF BUS DATA, BEGIN LOAD DATA
     2,  1, 1,    1,    1,       70,       10, 0, 0, 0, 0, 1, 1, 0
     3,  1, 1,    1,    1,       50,       10, 0, 0, 0, 0, 1, 1, 0
0 / END OF LOAD DATA, BEGIN FIXED SHUNT DATA
0 / END OF FIXED SHUNT DATA, BEGIN GENERATOR DATA
     1,  1,       20,         0,       100,      -100,    1.02, 0,     100, 0, 0, 0, 0, 1, 1, 100,       318,         0, 1, 1, 0, 1, 0, 1, 0, 1, 0, 1
0 / END OF GENERATOR DATA, BEGIN BRANCH DATA
     1,      3, 1,  0.01000,     0.12,      0.0,     250,     250,     250, 0, 0, 0, 0, 1, 1, 0, 1, 1, 0, 1, 0, 1, 0, 1
     1,      2, 1,  0.01000,     0.12,      0.0,     250,     250,     250, 0, 0, 0, 0, 1, 1, 0, 1, 1, 0, 1, 0, 1, 0, 1
     2,      3, 1,  0.01000,     0.12,      0.0,     250,     250,     250, 0, 0, 0, 0, 1, 1, 0, 1, 1, 0, 1, 0, 1, 0, 1
0 / END OF BRANCH DATA, BEGIN TRANSFORMER DATA
0 / END OF TRANSFORMER DATA, BEGIN AREA DATA
0 / END OF AREA DATA, BEGIN TWO-TERMINAL DC DATA
0 / END OF TWO-TERMINAL DC DATA, BEGIN VOLTAGE SOURCE CONVERTER DATA
0 / END OF VOLTAGE SOURCE CONVERTER DATA, BEGIN IMPEDANCE CORRECTION DATA
0 / END OF IMPEDANCE CORRECTION DATA, BEGIN MULTI-TERMINAL DC DATA
0 / END OF MULTI-TERMINAL DC DATA, BEGIN MULTI-SECTION LINE DATA
0 / END OF MULTI-SECTION LINE DATA, BEGIN ZONE DATA
0 / END OF ZONE DATA, BEGIN INTER-AREA TRANSFER DATA
0 / END OF INTER-AREA TRANSFER DATA, BEGIN OWNER DATA
0 / END OF OWNER DATA, BEGIN FACTS CONTROL DEVICE DATA
'FACTS1',      1,      0,    1,     0.0,     0.0,    1.02,    60.0,  9999.0,     0.9,     1.1,     1.0,    50.0,    0.05,    95.0,       1,     0.0,     0.0,    0,      3,'            '
0 / END OF FACTS CONTROL DEVICE DATA, BEGIN SWITCHED SHUNT DATA
0 / END OF SWITCHED SHUNT DATA, BEGIN GNE DEVICE DATA
0 / END OF GNE DEVICE DATA, BEGIN INDUCTION MACHINE DATA
0 / END OF INDUCTION MACHINE DATA
Q
